xflr5 v6.59

 Calculated polar for: MH 139F-0

 1 1 Reynolds number fixed          Mach number fixed         

 xtrf =   1.000 (top)        1.000 (bottom)
 Mach =   0.000     Re =     0.300 e 6     Ncrit =   5.000

  alpha     CL        CD       CDp       Cm    Top Xtr Bot Xtr   Cpmin    Chinge    XCp    
 ------- -------- --------- --------- -------- ------- ------- -------- --------- ---------
 -25.000  -0.4309   0.22993   0.22701   0.0104  1.0001  0.0104  -0.8830   0.0000   0.0000   0.0000   0.2615
 -24.000  -0.4102   0.21932   0.21638   0.0048  1.0001  0.0109  -0.8656   0.0000   0.0000   0.0000   0.2499
 -23.000  -0.3894   0.20895   0.20600  -0.0008  1.0001  0.0111  -0.8715   0.0000   0.0000   0.0000   0.2369
 -22.000  -0.3687   0.19877   0.19580  -0.0062  1.0001  0.0112  -0.9474   0.0000   0.0000   0.0000   0.2225
 -21.000  -0.3486   0.18868   0.18569  -0.0116  1.0001  0.0113  -1.0447   0.0000   0.0000   0.0000   0.2066
 -20.000  -0.3300   0.17869   0.17570  -0.0168  1.0001  0.0114  -1.1901   0.0000   0.0000   0.0000   0.1889
 -19.000  -0.5571   0.22770   0.22420   0.0090  1.0001  0.0114  -1.8950   0.0000   0.0000   0.0000   0.2467
 -18.000  -0.2798   0.15831   0.15535  -0.0242  1.0001  0.0149  -1.0090   0.0000   0.0000   0.0000   0.1546
 -16.000  -0.4626   0.18904   0.18561  -0.0097  1.0001  0.0167  -1.6929   0.0000   0.0000   0.0000   0.2120
 -15.000  -0.4380   0.17582   0.17241  -0.0163  1.0001  0.0168  -1.7068   0.0000   0.0000   0.0000   0.1965
 -14.000  -0.4142   0.16209   0.15872  -0.0219  1.0001  0.0169  -1.7239   0.0000   0.0000   0.0000   0.1814
 -13.000  -0.3919   0.14795   0.14463  -0.0269  1.0001  0.0169  -1.8126   0.0000   0.0000   0.0000   0.1661
 -12.000  -0.3723   0.13340   0.13013  -0.0312  1.0001  0.0168  -1.9066   0.0000   0.0000   0.0000   0.1516
 -11.000  -0.3656   0.11538   0.11216  -0.0349  1.0001  0.0109  -2.3872   0.0000   0.0000   0.0000   0.1406
 -10.000  -0.3661   0.09891   0.09580  -0.0399  1.0001  0.0109  -2.7932   0.0000   0.0000   0.0000   0.1281
  -9.000  -0.4021   0.07838   0.07548  -0.0460  1.0001  0.0114  -3.6699   0.0000   0.0000   0.0000   0.1246
  -8.000  -0.4145   0.02625   0.02135  -0.0977  0.9428  0.0122  -5.8219   0.0000   0.0000   0.0000   0.0033
  -7.000  -0.2888   0.02099   0.01522  -0.1048  0.9070  0.0147  -4.7165   0.0000   0.0000   0.0000  -0.1256
  -6.000  -0.1781   0.01614   0.00932  -0.1060  0.8588  0.0166  -3.8975   0.0000   0.0000   0.0000  -0.3621
  -5.000  -0.0705   0.01351   0.00623  -0.1058  0.8199  0.0212  -3.1280   0.0000   0.0000   0.0000  -1.2840
  -4.000   0.0394   0.01218   0.00461  -0.1055  0.7897  0.0324  -2.4113   0.0000   0.0000   0.0000   2.9739
  -3.000   0.1505   0.01114   0.00341  -0.1055  0.7653  0.0588  -1.7182   0.0000   0.0000   0.0000   0.9586
  -2.000   0.2617   0.01021   0.00278  -0.1057  0.7419  0.1987  -1.0708   0.0000   0.0000   0.0000   0.6564
  -1.000   0.3709   0.00922   0.00268  -0.1057  0.7178  0.5270  -0.6283   0.0000   0.0000   0.0000   0.5350
   0.000   0.4767   0.00876   0.00278  -0.1039  0.6883  0.7275  -0.7287   0.0000   0.0000   0.0000   0.4665
   1.000   0.5750   0.00850   0.00280  -0.0998  0.6510  0.9039  -0.8382   0.0000   0.0000   0.0000   0.4210
   2.000   0.6933   0.00869   0.00278  -0.1009  0.6016  0.9999  -0.9750   0.0000   0.0000   0.0000   0.3920
   3.000   0.7993   0.00932   0.00305  -0.0998  0.5400  0.9999  -1.1224   0.0000   0.0000   0.0000   0.3703
   4.000   0.9016   0.01023   0.00363  -0.0981  0.4702  0.9999  -1.2958   0.0000   0.0000   0.0000   0.3532
   5.000   1.0002   0.01139   0.00451  -0.0959  0.3930  0.9999  -1.5345   0.0000   0.0000   0.0000   0.3393
   6.000   1.0948   0.01281   0.00565  -0.0933  0.3209  0.9999  -1.8611   0.0000   0.0000   0.0000   0.3274
   7.000   1.1849   0.01446   0.00711  -0.0901  0.2546  0.9999  -2.2544   0.0000   0.0000   0.0000   0.3170
   8.000   1.2694   0.01632   0.00886  -0.0862  0.1972  0.9999  -2.7132   0.0000   0.0000   0.0000   0.3075
   9.000   1.3422   0.01865   0.01103  -0.0806  0.1408  0.9999  -3.2387   0.0000   0.0000   0.0000   0.2982
  10.000   1.3974   0.02158   0.01389  -0.0727  0.0939  0.9999  -3.7828   0.0000   0.0000   0.0000   0.2887
  11.000   1.4447   0.02527   0.01768  -0.0652  0.0656  0.9999  -4.3663   0.0000   0.0000   0.0000   0.2802
  12.000   1.4819   0.03018   0.02283  -0.0585  0.0492  0.9999  -4.9632   0.0000   0.0000   0.0000   0.2728
  13.000   1.5057   0.03696   0.02987  -0.0530  0.0385  0.9999  -5.5509   0.0000   0.0000   0.0000   0.2666
  14.000   1.5237   0.04502   0.03836  -0.0492  0.0326  0.9999  -6.1303   0.0000   0.0000   0.0000   0.2617
  15.000   1.5169   0.05658   0.05030  -0.0470  0.0272  0.9999  -6.6322   0.0000   0.0000   0.0000   0.2583
  16.000   1.5051   0.07031   0.06456  -0.0474  0.0245  0.9999  -7.0810   0.0000   0.0000   0.0000   0.2566
  17.000   1.4834   0.08689   0.08164  -0.0508  0.0219  0.9999  -7.4412   0.0000   0.0000   0.0000   0.2571
  18.000   1.4448   0.10740   0.10259  -0.0574  0.0196  0.9999  -7.6288   0.0000   0.0000   0.0000   0.2603
  19.000   1.4013   0.12978   0.12540  -0.0665  0.0178  0.9999  -7.6924   0.0000   0.0000   0.0000   0.2657
  20.000   1.3709   0.15103   0.14716  -0.0770  0.0166  0.9999  -7.8113   0.0000   0.0000   0.0000   0.2721
  21.000   1.3397   0.17405   0.17064  -0.0904  0.0153  0.9999  -7.8286   0.0000   0.0000   0.0000   0.2812
  22.000   1.3059   0.19960   0.19663  -0.1068  0.0141  0.9999  -7.6449   0.0000   0.0000   0.0000   0.2934
  23.000   1.2505   0.23607   0.23351  -0.1312  0.0131  0.9999  -6.7062   0.0000   0.0000   0.0000   0.3154
  24.000   1.1885   0.29327   0.29071  -0.1640  0.0085  0.9999  -4.0475   0.0000   0.0000   0.0000   0.3499
  25.000   1.2096   0.31188   0.30932  -0.1768  0.0070  0.9999  -3.7724   0.0000   0.0000   0.0000   0.3560


